<?xml version="1.0" encoding="UTF-8" standalone="yes"?>
<template encoding-version="1.2">
    <description></description>
    <groupId>899b735d-0164-1000-f4e9-a0a61853fc50</groupId>
    <name>Tweet Geotag Data Pull: Nifi Flow</name>
    <snippet>
        <connections>
            <id>052c0774-aca7-3435-0000-000000000000</id>
            <parentGroupId>b903cef5-e79e-3a68-0000-000000000000</parentGroupId>
            <backPressureDataSizeThreshold>1 GB</backPressureDataSizeThreshold>
            <backPressureObjectThreshold>10000</backPressureObjectThreshold>
            <destination>
                <groupId>5ebff4aa-cece-383d-0000-000000000000</groupId>
                <id>3899e918-0eff-3957-0000-000000000000</id>
                <type>INPUT_PORT</type>
            </destination>
            <flowFileExpiration>0 sec</flowFileExpiration>
            <labelIndex>1</labelIndex>
            <name></name>
            <selectedRelationships>success</selectedRelationships>
            <source>
                <groupId>b903cef5-e79e-3a68-0000-000000000000</groupId>
                <id>9698d448-2d79-3799-0000-000000000000</id>
                <type>PROCESSOR</type>
            </source>
            <zIndex>0</zIndex>
        </connections>
        <connections>
            <id>0fd51473-3161-3990-0000-000000000000</id>
            <parentGroupId>b903cef5-e79e-3a68-0000-000000000000</parentGroupId>
            <backPressureDataSizeThreshold>1 GB</backPressureDataSizeThreshold>
            <backPressureObjectThreshold>10000</backPressureObjectThreshold>
            <destination>
                <groupId>fc0d7c79-02cc-34de-0000-000000000000</groupId>
                <id>6199a025-cdab-3b9d-0000-000000000000</id>
                <type>INPUT_PORT</type>
            </destination>
            <flowFileExpiration>0 sec</flowFileExpiration>
            <labelIndex>1</labelIndex>
            <name></name>
            <source>
                <groupId>b903cef5-e79e-3a68-0000-000000000000</groupId>
                <id>1f31bf56-be38-36af-0000-000000000000</id>
                <type>INPUT_PORT</type>
            </source>
            <zIndex>0</zIndex>
        </connections>
        <connections>
            <id>156414b5-584c-3b91-0000-000000000000</id>
            <parentGroupId>b903cef5-e79e-3a68-0000-000000000000</parentGroupId>
            <backPressureDataSizeThreshold>1 GB</backPressureDataSizeThreshold>
            <backPressureObjectThreshold>10000</backPressureObjectThreshold>
            <destination>
                <groupId>b903cef5-e79e-3a68-0000-000000000000</groupId>
                <id>93529658-366d-3aaf-0000-000000000000</id>
                <type>PROCESSOR</type>
            </destination>
            <flowFileExpiration>0 sec</flowFileExpiration>
            <labelIndex>1</labelIndex>
            <name></name>
            <selectedRelationships>success</selectedRelationships>
            <source>
                <groupId>b903cef5-e79e-3a68-0000-000000000000</groupId>
                <id>1f87d3f3-1a4c-340f-0000-000000000000</id>
                <type>PROCESSOR</type>
            </source>
            <zIndex>0</zIndex>
        </connections>
        <connections>
            <id>2224644b-b065-325d-0000-000000000000</id>
            <parentGroupId>b903cef5-e79e-3a68-0000-000000000000</parentGroupId>
            <backPressureDataSizeThreshold>1 GB</backPressureDataSizeThreshold>
            <backPressureObjectThreshold>10000</backPressureObjectThreshold>
            <destination>
                <groupId>b903cef5-e79e-3a68-0000-000000000000</groupId>
                <id>a2846e07-6a1b-3474-0000-000000000000</id>
                <type>PROCESSOR</type>
            </destination>
            <flowFileExpiration>0 sec</flowFileExpiration>
            <labelIndex>1</labelIndex>
            <name></name>
            <source>
                <groupId>8a169ee8-70a2-37e0-0000-000000000000</groupId>
                <id>64c4f899-746d-3106-0000-000000000000</id>
                <type>OUTPUT_PORT</type>
            </source>
            <zIndex>0</zIndex>
        </connections>
        <connections>
            <id>526c2ec5-90ad-3407-0000-000000000000</id>
            <parentGroupId>b903cef5-e79e-3a68-0000-000000000000</parentGroupId>
            <backPressureDataSizeThreshold>1 GB</backPressureDataSizeThreshold>
            <backPressureObjectThreshold>10000</backPressureObjectThreshold>
            <destination>
                <groupId>8a169ee8-70a2-37e0-0000-000000000000</groupId>
                <id>376ab1a4-660a-39d6-0000-000000000000</id>
                <type>INPUT_PORT</type>
            </destination>
            <flowFileExpiration>0 sec</flowFileExpiration>
            <labelIndex>1</labelIndex>
            <name></name>
            <selectedRelationships>success</selectedRelationships>
            <source>
                <groupId>b903cef5-e79e-3a68-0000-000000000000</groupId>
                <id>1a1dfa16-c995-3eae-0000-000000000000</id>
                <type>PROCESSOR</type>
            </source>
            <zIndex>0</zIndex>
        </connections>
        <connections>
            <id>95718fc4-47d3-37bd-0000-000000000000</id>
            <parentGroupId>b903cef5-e79e-3a68-0000-000000000000</parentGroupId>
            <backPressureDataSizeThreshold>1 GB</backPressureDataSizeThreshold>
            <backPressureObjectThreshold>10000</backPressureObjectThreshold>
            <destination>
                <groupId>b903cef5-e79e-3a68-0000-000000000000</groupId>
                <id>83f2f598-97ff-31a2-0000-000000000000</id>
                <type>PROCESSOR</type>
            </destination>
            <flowFileExpiration>0 sec</flowFileExpiration>
            <labelIndex>1</labelIndex>
            <name></name>
            <selectedRelationships>failure</selectedRelationships>
            <source>
                <groupId>b903cef5-e79e-3a68-0000-000000000000</groupId>
                <id>9698d448-2d79-3799-0000-000000000000</id>
                <type>PROCESSOR</type>
            </source>
            <zIndex>0</zIndex>
        </connections>
        <connections>
            <id>9dde61c8-3ba0-3321-0000-000000000000</id>
            <parentGroupId>b903cef5-e79e-3a68-0000-000000000000</parentGroupId>
            <backPressureDataSizeThreshold>1 GB</backPressureDataSizeThreshold>
            <backPressureObjectThreshold>10000</backPressureObjectThreshold>
            <bends>
                <x>4190.8502018563295</x>
                <y>1863.129781438867</y>
            </bends>
            <bends>
                <x>4188.467664014533</x>
                <y>1755.5852257748045</y>
            </bends>
            <destination>
                <groupId>b903cef5-e79e-3a68-0000-000000000000</groupId>
                <id>1f87d3f3-1a4c-340f-0000-000000000000</id>
                <type>PROCESSOR</type>
            </destination>
            <flowFileExpiration>0 sec</flowFileExpiration>
            <labelIndex>0</labelIndex>
            <name></name>
            <source>
                <groupId>8a169ee8-70a2-37e0-0000-000000000000</groupId>
                <id>7b6402fd-1997-32d0-0000-000000000000</id>
                <type>OUTPUT_PORT</type>
            </source>
            <zIndex>0</zIndex>
        </connections>
        <connections>
            <id>a62b8120-1fbf-3d3b-0000-000000000000</id>
            <parentGroupId>b903cef5-e79e-3a68-0000-000000000000</parentGroupId>
            <backPressureDataSizeThreshold>1 GB</backPressureDataSizeThreshold>
            <backPressureObjectThreshold>10000</backPressureObjectThreshold>
            <bends>
                <x>4176.413098584845</x>
                <y>2517.417379095117</y>
            </bends>
            <bends>
                <x>4176.413098584845</x>
                <y>2313.799215032617</y>
            </bends>
            <destination>
                <groupId>b903cef5-e79e-3a68-0000-000000000000</groupId>
                <id>9698d448-2d79-3799-0000-000000000000</id>
                <type>PROCESSOR</type>
            </destination>
            <flowFileExpiration>0 sec</flowFileExpiration>
            <labelIndex>0</labelIndex>
            <name></name>
            <source>
                <groupId>b903cef5-e79e-3a68-0000-000000000000</groupId>
                <id>aa29c1b4-f9ec-31b6-0000-000000000000</id>
                <type>INPUT_PORT</type>
            </source>
            <zIndex>0</zIndex>
        </connections>
        <connections>
            <id>b740e7c2-12cb-3c65-0000-000000000000</id>
            <parentGroupId>b903cef5-e79e-3a68-0000-000000000000</parentGroupId>
            <backPressureDataSizeThreshold>1 GB</backPressureDataSizeThreshold>
            <backPressureObjectThreshold>10000</backPressureObjectThreshold>
            <destination>
                <groupId>3879bea2-c6b9-32ab-0000-000000000000</groupId>
                <id>0e5b3869-5dcc-1025-d3c1-b6ccc57ba74f</id>
                <type>REMOTE_INPUT_PORT</type>
            </destination>
            <flowFileExpiration>0 sec</flowFileExpiration>
            <labelIndex>1</labelIndex>
            <name></name>
            <selectedRelationships>success</selectedRelationships>
            <source>
                <groupId>b903cef5-e79e-3a68-0000-000000000000</groupId>
                <id>93529658-366d-3aaf-0000-000000000000</id>
                <type>PROCESSOR</type>
            </source>
            <zIndex>0</zIndex>
        </connections>
        <connections>
            <id>dd84b76e-c3a0-3051-0000-000000000000</id>
            <parentGroupId>b903cef5-e79e-3a68-0000-000000000000</parentGroupId>
            <backPressureDataSizeThreshold>1 GB</backPressureDataSizeThreshold>
            <backPressureObjectThreshold>10000</backPressureObjectThreshold>
            <destination>
                <groupId>b903cef5-e79e-3a68-0000-000000000000</groupId>
                <id>9698d448-2d79-3799-0000-000000000000</id>
                <type>PROCESSOR</type>
            </destination>
            <flowFileExpiration>0 sec</flowFileExpiration>
            <labelIndex>1</labelIndex>
            <name></name>
            <source>
                <groupId>8a169ee8-70a2-37e0-0000-000000000000</groupId>
                <id>64c4f899-746d-3106-0000-000000000000</id>
                <type>OUTPUT_PORT</type>
            </source>
            <zIndex>0</zIndex>
        </connections>
        <controllerServices>
            <id>c92b361f-f24e-312e-0000-000000000000</id>
            <parentGroupId>b903cef5-e79e-3a68-0000-000000000000</parentGroupId>
            <bundle>
                <artifact>nifi-dbcp-service-nar</artifact>
                <group>org.apache.nifi</group>
                <version>1.7.0</version>
            </bundle>
            <comments></comments>
            <descriptors>
                <entry>
                    <key>Database Connection URL</key>
                    <value>
                        <name>Database Connection URL</name>
                    </value>
                </entry>
                <entry>
                    <key>Database Driver Class Name</key>
                    <value>
                        <name>Database Driver Class Name</name>
                    </value>
                </entry>
                <entry>
                    <key>database-driver-locations</key>
                    <value>
                        <name>database-driver-locations</name>
                    </value>
                </entry>
                <entry>
                    <key>Database User</key>
                    <value>
                        <name>Database User</name>
                    </value>
                </entry>
                <entry>
                    <key>Password</key>
                    <value>
                        <name>Password</name>
                    </value>
                </entry>
                <entry>
                    <key>Max Wait Time</key>
                    <value>
                        <name>Max Wait Time</name>
                    </value>
                </entry>
                <entry>
                    <key>Max Total Connections</key>
                    <value>
                        <name>Max Total Connections</name>
                    </value>
                </entry>
                <entry>
                    <key>Validation-query</key>
                    <value>
                        <name>Validation-query</name>
                    </value>
                </entry>
            </descriptors>
            <name>PostgreSQLDBConnectionPool</name>
            <persistsState>false</persistsState>
            <properties>
                <entry>
                    <key>Database Connection URL</key>
                    <value>jdbc:postgresql://192.168.16.32:5432/geoserver</value>
                </entry>
                <entry>
                    <key>Database Driver Class Name</key>
                    <value>org.postgresql.Driver</value>
                </entry>
                <entry>
                    <key>database-driver-locations</key>
                    <value>postgresql-42.2.4.jar</value>
                </entry>
                <entry>
                    <key>Database User</key>
                    <value>geoserveruser</value>
                </entry>
                <entry>
                    <key>Password</key>
                </entry>
                <entry>
                    <key>Max Wait Time</key>
                    <value>500 millis</value>
                </entry>
                <entry>
                    <key>Max Total Connections</key>
                    <value>8</value>
                </entry>
                <entry>
                    <key>Validation-query</key>
                </entry>
            </properties>
            <state>ENABLED</state>
            <type>org.apache.nifi.dbcp.DBCPConnectionPool</type>
        </controllerServices>
        <inputPorts>
            <id>1f31bf56-be38-36af-0000-000000000000</id>
            <parentGroupId>b903cef5-e79e-3a68-0000-000000000000</parentGroupId>
            <position>
                <x>2593.1011798625177</x>
                <y>58.128203775097745</y>
            </position>
            <concurrentlySchedulableTaskCount>1</concurrentlySchedulableTaskCount>
            <name>AnalyticsServerInput</name>
            <state>DISABLED</state>
            <transmitting>false</transmitting>
            <type>INPUT_PORT</type>
        </inputPorts>
        <inputPorts>
            <id>aa29c1b4-f9ec-31b6-0000-000000000000</id>
            <parentGroupId>b903cef5-e79e-3a68-0000-000000000000</parentGroupId>
            <position>
                <x>4453.180528651082</x>
                <y>2479.9189564671888</y>
            </position>
            <comments>I know it's ugly that this is out here but unfortunately it's the only way to make it work.</comments>
            <concurrentlySchedulableTaskCount>1</concurrentlySchedulableTaskCount>
            <name>TweetsFromAnalytics</name>
            <state>STOPPED</state>
            <transmitting>false</transmitting>
            <type>INPUT_PORT</type>
        </inputPorts>
        <labels>
            <id>04bb1999-ab88-3cae-0000-000000000000</id>
            <parentGroupId>b903cef5-e79e-3a68-0000-000000000000</parentGroupId>
            <position>
                <x>3527.8435928261347</x>
                <y>1548.9428180951647</y>
            </position>
            <height>37.08640670776367</height>
            <label>Pull Twitter data
</label>
            <style>
                <entry>
                    <key>font-size</key>
                    <value>14px</value>
                </entry>
            </style>
            <width>137.40725708007812</width>
        </labels>
        <labels>
            <id>14da610d-56e4-3a1c-0000-000000000000</id>
            <parentGroupId>b903cef5-e79e-3a68-0000-000000000000</parentGroupId>
            <position>
                <x>3472.8580753914857</x>
                <y>59.16902322963847</y>
            </position>
            <height>70.99999237060547</height>
            <label>NiFi flow to fetch tweets, parse 
for selected fields/attributes,  then 
save resulting data in a relational (SQL) database.
</label>
            <style>
                <entry>
                    <key>background-color</key>
                    <value>#5f89c9</value>
                </entry>
                <entry>
                    <key>font-size</key>
                    <value>14px</value>
                </entry>
            </style>
            <width>340.0</width>
        </labels>
        <labels>
            <id>274b9750-4215-3051-0000-000000000000</id>
            <parentGroupId>b903cef5-e79e-3a68-0000-000000000000</parentGroupId>
            <position>
                <x>3498.6931173241205</x>
                <y>1639.3826526898913</y>
            </position>
            <height>26.0</height>
            <label>Original Twitter object (JSON)
</label>
            <style>
                <entry>
                    <key>background-color</key>
                    <value>#ecd4ff</value>
                </entry>
                <entry>
                    <key>font-size</key>
                    <value>12px</value>
                </entry>
            </style>
            <width>197.0</width>
        </labels>
        <labels>
            <id>70b4e7ea-153f-3f7e-0000-000000000000</id>
            <parentGroupId>b903cef5-e79e-3a68-0000-000000000000</parentGroupId>
            <position>
                <x>3438.315343656898</x>
                <y>1367.2148886220236</y>
            </position>
            <height>656.6414184570312</height>
            <label>Ingest &amp; Data Cleaning
</label>
            <style>
                <entry>
                    <key>background-color</key>
                    <value>#ffd6de</value>
                </entry>
                <entry>
                    <key>font-size</key>
                    <value>22px</value>
                </entry>
            </style>
            <width>684.7338104248047</width>
        </labels>
        <labels>
            <id>7b9068f5-ca2f-3067-0000-000000000000</id>
            <parentGroupId>b903cef5-e79e-3a68-0000-000000000000</parentGroupId>
            <position>
                <x>3427.552755052801</x>
                <y>2170.2193899577987</y>
            </position>
            <height>624.8633117675781</height>
            <label>Database &amp; Data Storage: 
GeoServer/PostgreSQL/ElasticSearch

</label>
            <style>
                <entry>
                    <key>background-color</key>
                    <value>#c9e0d0</value>
                </entry>
                <entry>
                    <key>font-size</key>
                    <value>22px</value>
                </entry>
            </style>
            <width>708.9896850585938</width>
        </labels>
        <labels>
            <id>8681c3d6-7e98-34c5-0000-000000000000</id>
            <parentGroupId>b903cef5-e79e-3a68-0000-000000000000</parentGroupId>
            <position>
                <x>4257.060135225114</x>
                <y>1406.9580518076607</y>
            </position>
            <height>1050.6633605957031</height>
            <label>Analytics:
NLP/ Machine Learning
</label>
            <style>
                <entry>
                    <key>background-color</key>
                    <value>#bcdbd9</value>
                </entry>
                <entry>
                    <key>font-size</key>
                    <value>22px</value>
                </entry>
            </style>
            <width>698.5617218017578</width>
        </labels>
        <labels>
            <id>b78c8306-756d-3da6-0000-000000000000</id>
            <parentGroupId>b903cef5-e79e-3a68-0000-000000000000</parentGroupId>
            <position>
                <x>1608.1943975952804</x>
                <y>7.342520563611515</y>
            </position>
            <height>67.118408203125</height>
            <label>Doesn't do a whole lot 
just something I'm playing 
around with to get familiar with nifi</label>
            <style>
                <entry>
                    <key>font-size</key>
                    <value>12px</value>
                </entry>
            </style>
            <width>204.01736450195312</width>
        </labels>
        <processGroups>
            <id>24efce7f-6c47-3b36-0000-000000000000</id>
            <parentGroupId>b903cef5-e79e-3a68-0000-000000000000</parentGroupId>
            <position>
                <x>0.0</x>
                <y>1111.9244995117188</y>
            </position>
            <comments></comments>
            <contents>
                <processGroups>
                    <id>4576b977-65bf-388a-0000-000000000000</id>
                    <parentGroupId>24efce7f-6c47-3b36-0000-000000000000</parentGroupId>
                    <position>
                        <x>874.3999058013085</x>
                        <y>893.8864917468769</y>
                    </position>
                    <comments></comments>
                    <contents>
                        <connections>
                            <id>0a2003dd-48b8-3d06-0000-000000000000</id>
                            <parentGroupId>4576b977-65bf-388a-0000-000000000000</parentGroupId>
                            <backPressureDataSizeThreshold>1 GB</backPressureDataSizeThreshold>
                            <backPressureObjectThreshold>10000</backPressureObjectThreshold>
                            <destination>
<groupId>4576b977-65bf-388a-0000-000000000000</groupId>
<id>30a3aa33-d2bf-36db-0000-000000000000</id>
<type>PROCESSOR</type>
                            </destination>
                            <flowFileExpiration>0 sec</flowFileExpiration>
                            <labelIndex>1</labelIndex>
                            <name></name>
                            <selectedRelationships>matched</selectedRelationships>
                            <source>
<groupId>4576b977-65bf-388a-0000-000000000000</groupId>
<id>ef29025c-469b-300b-0000-000000000000</id>
<type>PROCESSOR</type>
                            </source>
                            <zIndex>0</zIndex>
                        </connections>
                        <connections>
                            <id>10193470-795f-3265-0000-000000000000</id>
                            <parentGroupId>4576b977-65bf-388a-0000-000000000000</parentGroupId>
                            <backPressureDataSizeThreshold>1 GB</backPressureDataSizeThreshold>
                            <backPressureObjectThreshold>10000</backPressureObjectThreshold>
                            <destination>
<groupId>4576b977-65bf-388a-0000-000000000000</groupId>
<id>135c06a2-c0b5-37ec-0000-000000000000</id>
<type>PROCESSOR</type>
                            </destination>
                            <flowFileExpiration>0 sec</flowFileExpiration>
                            <labelIndex>1</labelIndex>
                            <name></name>
                            <selectedRelationships>success</selectedRelationships>
                            <source>
<groupId>4576b977-65bf-388a-0000-000000000000</groupId>
<id>30a3aa33-d2bf-36db-0000-000000000000</id>
<type>PROCESSOR</type>
                            </source>
                            <zIndex>0</zIndex>
                        </connections>
                        <connections>
                            <id>13476ef5-ed09-3b86-0000-000000000000</id>
                            <parentGroupId>4576b977-65bf-388a-0000-000000000000</parentGroupId>
                            <backPressureDataSizeThreshold>1 GB</backPressureDataSizeThreshold>
                            <backPressureObjectThreshold>10000</backPressureObjectThreshold>
                            <destination>
<groupId>4576b977-65bf-388a-0000-000000000000</groupId>
<id>d15dee59-6479-39ad-0000-000000000000</id>
<type>OUTPUT_PORT</type>
                            </destination>
                            <flowFileExpiration>0 sec</flowFileExpiration>
                            <labelIndex>1</labelIndex>
                            <name></name>
                            <selectedRelationships>success</selectedRelationships>
                            <source>
<groupId>4576b977-65bf-388a-0000-000000000000</groupId>
<id>b5552c60-ffd3-31ad-0000-000000000000</id>
<type>PROCESSOR</type>
                            </source>
                            <zIndex>0</zIndex>
                        </connections>
                        <connections>
                            <id>1befe602-5209-3b3a-0000-000000000000</id>
                            <parentGroupId>4576b977-65bf-388a-0000-000000000000</parentGroupId>
                            <backPressureDataSizeThreshold>1 GB</backPressureDataSizeThreshold>
                            <backPressureObjectThreshold>10000</backPressureObjectThreshold>
                            <destination>
<groupId>4576b977-65bf-388a-0000-000000000000</groupId>
<id>a0224a36-1c18-365f-0000-000000000000</id>
<type>PROCESSOR</type>
                            </destination>
                            <flowFileExpiration>0 sec</flowFileExpiration>
                            <labelIndex>1</labelIndex>
                            <name></name>
                            <selectedRelationships>coordinates present</selectedRelationships>
                            <source>
<groupId>4576b977-65bf-388a-0000-000000000000</groupId>
<id>4880017a-620b-3f4b-0000-000000000000</id>
<type>PROCESSOR</type>
                            </source>
                            <zIndex>0</zIndex>
                        </connections>
                        <connections>
                            <id>4b8f512d-c1b9-3729-0000-000000000000</id>
                            <parentGroupId>4576b977-65bf-388a-0000-000000000000</parentGroupId>
                            <backPressureDataSizeThreshold>1 GB</backPressureDataSizeThreshold>
                            <backPressureObjectThreshold>10000</backPressureObjectThreshold>
                            <destination>
<groupId>4576b977-65bf-388a-0000-000000000000</groupId>
<id>4880017a-620b-3f4b-0000-000000000000</id>
<type>PROCESSOR</type>
                            </destination>
                            <flowFileExpiration>0 sec</flowFileExpiration>
                            <labelIndex>1</labelIndex>
                            <name></name>
                            <selectedRelationships>success</selectedRelationships>
                            <source>
<groupId>4576b977-65bf-388a-0000-000000000000</groupId>
<id>135c06a2-c0b5-37ec-0000-000000000000</id>
<type>PROCESSOR</type>
                            </source>
                            <zIndex>0</zIndex>
                        </connections>
                        <connections>
                            <id>6ba16747-cdd5-3b28-0000-000000000000</id>
                            <parentGroupId>4576b977-65bf-388a-0000-000000000000</parentGroupId>
                            <backPressureDataSizeThreshold>1 GB</backPressureDataSizeThreshold>
                            <backPressureObjectThreshold>10000</backPressureObjectThreshold>
                            <destination>
<groupId>4576b977-65bf-388a-0000-000000000000</groupId>
<id>6c54fe93-0233-3f18-0000-000000000000</id>
<type>OUTPUT_PORT</type>
                            </destination>
                            <flowFileExpiration>0 sec</flowFileExpiration>
                            <labelIndex>1</labelIndex>
                            <name></name>
                            <selectedRelationships>unmatched</selectedRelationships>
                            <source>
<groupId>4576b977-65bf-388a-0000-000000000000</groupId>
<id>4880017a-620b-3f4b-0000-000000000000</id>
<type>PROCESSOR</type>
                            </source>
                            <zIndex>0</zIndex>
                        </connections>
                        <connections>
                            <id>c2f76f52-7648-341b-0000-000000000000</id>
                            <parentGroupId>4576b977-65bf-388a-0000-000000000000</parentGroupId>
                            <backPressureDataSizeThreshold>1 GB</backPressureDataSizeThreshold>
                            <backPressureObjectThreshold>10000</backPressureObjectThreshold>
                            <destination>
<groupId>4576b977-65bf-388a-0000-000000000000</groupId>
<id>b5552c60-ffd3-31ad-0000-000000000000</id>
<type>PROCESSOR</type>
                            </destination>
                            <flowFileExpiration>0 sec</flowFileExpiration>
                            <labelIndex>1</labelIndex>
                            <name></name>
                            <selectedRelationships>success</selectedRelationships>
                            <source>
<groupId>4576b977-65bf-388a-0000-000000000000</groupId>
<id>a0224a36-1c18-365f-0000-000000000000</id>
<type>PROCESSOR</type>
                            </source>
                            <zIndex>0</zIndex>
                        </connections>
                        <connections>
                            <id>d3e25c2d-2551-326e-0000-000000000000</id>
                            <parentGroupId>4576b977-65bf-388a-0000-000000000000</parentGroupId>
                            <backPressureDataSizeThreshold>1 GB</backPressureDataSizeThreshold>
                            <backPressureObjectThreshold>10000</backPressureObjectThreshold>
                            <destination>
<groupId>4576b977-65bf-388a-0000-000000000000</groupId>
<id>ef29025c-469b-300b-0000-000000000000</id>
<type>PROCESSOR</type>
                            </destination>
                            <flowFileExpiration>0 sec</flowFileExpiration>